<?xml version="1.0" encoding="UTF-8"?>
<!--
  Highway nodes — two endpoints, 1 km apart.
  See Project-Documentation/sumo_scenarios/OVERVIEW.md for the full design.
-->
<nodes xmlns:xsi="http://www.w3.org/2001/XMLSchema-instance"
       xsi:noNamespaceSchemaLocation="http://sumo.dlr.de/xsd/nodes_file.xsd">
    <node id="start" x="0.0"    y="0.0" type="dead_end"/>
    <node id="end"   x="1000.0" y="0.0" type="dead_end"/>
</nodes>
