<?xml version="1.0" encoding="UTF-8"?>

<!-- generated on 2026-04-26T17:53:08.099977-05:00 by Eclipse SUMO netconvert 1.26.0
<netconvertConfiguration xmlns:xsi="http://www.w3.org/2001/XMLSchema-instance" xsi:noNamespaceSchemaLocation="http://sumo.dlr.de/xsd/netconvertConfiguration.xsd">

    <input>
        <node-files value="highway.nod.xml"/>
        <edge-files value="highway.edg.xml"/>
    </input>

    <output>
        <output-file value="highway.net.xml"/>
    </output>

    <junctions>
        <no-turnarounds value="true"/>
    </junctions>

</netconvertConfiguration>
-->

<net version="1.20" junctionCornerDetail="5" limitTurnSpeed="5.50" xmlns:xsi="http://www.w3.org/2001/XMLSchema-instance" xsi:noNamespaceSchemaLocation="http://sumo.dlr.de/xsd/net_file.xsd">

    <location netOffset="0.00,0.00" convBoundary="0.00,0.00,1000.00,0.00" origBoundary="0.00,0.00,1000.00,0.00" projParameter="!"/>

    <edge id="e1" from="start" to="end" priority="-1">
        <lane id="e1_0" index="0" speed="36.11" length="1000.00" shape="0.00,-8.00 1000.00,-8.00"/>
        <lane id="e1_1" index="1" speed="36.11" length="1000.00" shape="0.00,-4.80 1000.00,-4.80"/>
        <lane id="e1_2" index="2" speed="36.11" length="1000.00" shape="0.00,-1.60 1000.00,-1.60"/>
    </edge>

    <junction id="end" type="dead_end" x="1000.00" y="0.00" incLanes="e1_0 e1_1 e1_2" intLanes="" shape="1000.00,-9.60 1000.00,0.00"/>
    <junction id="start" type="dead_end" x="0.00" y="0.00" incLanes="" intLanes="" shape="0.00,0.00 0.00,-9.60"/>

</net>
