<?xml version="1.0" encoding="UTF-8"?>
<!--
  MEDIUM density: total arrival rate ~0.65 veh/s ≈ one car every 1.5 s.
  At ~30 s mean traversal time → ~20 background vehicles on the 1 km road.
  Mix: 60% normal · 25% aggressive · 15% slow.
-->
<routes xmlns:xsi="http://www.w3.org/2001/XMLSchema-instance"
        xsi:noNamespaceSchemaLocation="http://sumo.dlr.de/xsd/routes_file.xsd">

    <route id="r_through" edges="e1"/>

    <flow id="f_normal"     type="normal"     route="r_through"
          begin="0" end="3600" period="exp(0.40)"
          departLane="best" departSpeed="desired"/>

    <flow id="f_aggressive" type="aggressive" route="r_through"
          begin="0" end="3600" period="exp(0.15)"
          departLane="best" departSpeed="desired"/>

    <flow id="f_slow"       type="slow"       route="r_through"
          begin="0" end="3600" period="exp(0.10)"
          departLane="0"    departSpeed="desired"/>

</routes>
